[C:1]([C:2]([N:3]=[O:4])=[N+:6]=[N-:5])([H:7])([H:8])[H:9]
     RDKit          3D

  9  8  0  0  0  0  0  0  0  0999 V2000
   -1.0108   -0.0114   -0.0610 C   0  0  0  0  0  0  0  0  0  0  0  0
    0.4780    0.0191    0.0139 C   0  0  0  0  0  0  0  0  0  0  0  0
    1.2974   -0.9930    0.4693 N   0  0  0  0  0  0  0  0  0  0  0  0
    0.6928   -1.9845    0.8337 O   0  0  0  0  0  1  0  0  0  0  0  0
    1.7456    1.9701   -0.6976 N   0  0  0  0  0  1  0  0  0  0  0  0
    1.1642    1.0763   -0.3716 N   0  0  0  0  0  2  0  0  0  0  0  0
   -1.4020    0.9134   -0.4821 H   0  0  0  0  0  0  0  0  0  0  0  0
   -1.3327   -0.8499   -0.6803 H   0  0  0  0  0  0  0  0  0  0  0  0
   -1.4329   -0.1554    0.9349 H   0  0  0  0  0  0  0  0  0  0  0  0
  1  2  1  0
  1  9  1  0
  2  3  2  0
  3  4  1  0
  5  6  1  0
  6  2  1  0
  7  1  1  0
  8  1  1  0
M  RAD  3   4   2   5   3   6   2
M  END
$$$$
